13
ala_unknown_1
C         -1.53          0.00          0.00
C          0.00          0.00          0.00
N          0.58          1.37          0.00
O         -1.98          0.79          1.07
O         -2.30         -0.65         -0.72
H         -2.97          0.70          1.11
H          0.33         -0.48         -0.92
C          0.50         -0.83          1.20
H          0.39          1.84         -0.89
H          0.21          1.89          0.81
H          0.15         -0.37          2.13
H          1.59         -0.82          1.20
H          0.14         -1.87          1.15