13
ala_unknown_2
C          1.53         -0.00         -0.00
C         -0.00         -0.00         -0.00
N         -0.55         -1.38         -0.00
O          2.00          1.31         -0.04
O          2.26         -0.99         -0.13
H          3.00          1.28         -0.05
H         -0.35          0.52          0.90
C         -0.52          0.82         -1.20
H         -0.14         -1.91         -0.78
H         -0.29         -1.87          0.86
H         -0.07          1.81         -1.18
H         -1.61          0.79         -1.20
H         -0.16          0.38         -2.14