13
ala_2
C         -0.11         -0.06          0.77
C         -0.44         -0.30         -0.70
N         -0.62          0.96         -1.47
O          0.95          0.87          0.84
O         -0.62         -0.56          1.78
H          1.17          1.01          1.80
H         -1.37         -0.87         -0.73
C          0.71         -1.11         -1.35
H         -1.46          1.46         -1.17
H          0.20          1.56         -1.32
H          1.64         -0.55         -1.24
H          0.48         -1.25         -2.40
H          0.82         -2.08         -0.85