13
ala_3
C          0.04          0.18         -0.72
C          0.40         -0.17          0.73
N          0.21          0.99          1.64
O          0.29         -0.92         -1.54
O         -0.41          1.25         -1.13
H          0.03         -0.67         -2.47
H          1.45         -0.47          0.75
C         -0.48         -1.35          1.21
H         -0.75          1.33          1.56
H          0.84          1.76          1.37
H         -0.32         -2.21          0.55
H         -0.21         -1.60          2.24
H         -1.54         -1.07          1.18