15
water molecules
O    -4.60953     0.42884     0.00000
H    -3.63953     0.42884     0.00000
H    -4.93286     1.07505     0.64713
O    -1.52809     1.31175     0.00000
H    -0.55809     1.31175     0.00000
H    -1.85142     1.47533    -0.89978
O    -1.25289    -1.84537    -0.04211
H    -0.28289    -1.84537    -0.04211
H    -1.57622    -2.54970     0.54123
O    -2.79685     4.19632    -0.04211
H    -1.82685     4.19632    -0.04211
H    -3.12018     4.66973     0.74035
O     1.07571     2.09816    -0.04211
H     2.04571     2.09816    -0.04211
H     0.75238     2.58641     0.73118